McPAT (version 0.8 of Aug, 2010) is computing the target processor...
 
XML Parsing error inside file '/home/milad/gem5/DVFS_tAST/real_simulation2G/power_65nm.xml'.
Error: File not found
At line 0, column 0.
