---------- Begin Simulation Statistics ----------
sim_seconds                                  0.021484                       # Number of seconds simulated
sim_ticks                                 21484337000                       # Number of ticks simulated
final_tick                               2757328146000                       # Number of ticks from beginning of simulation (restored from checkpoints and never reset)
sim_freq                                 1000000000000                       # Frequency of simulated ticks
host_inst_rate                                 257432                       # Simulator instruction rate (inst/s)
host_op_rate                                   257432                       # Simulator op (including micro ops) rate (op/s)
host_tick_rate                               15364539                       # Simulator tick rate (ticks/s)
host_mem_usage                                1404448                       # Number of bytes of host memory used
host_seconds                                  1398.31                       # Real time elapsed on the host
sim_insts                                   359968900                       # Number of instructions simulated
sim_ops                                     359968900                       # Number of ops (including micro ops) simulated
system.voltage_domain.voltage                       1                       # Voltage in Volts
system.clk_domain.clock                          1000                       # Clock period in ticks
system.mem_ctrls.bytes_read::cpu0.inst      1407360                       # Number of bytes read from this memory
system.mem_ctrls.bytes_read::cpu0.data        81968                       # Number of bytes read from this memory
system.mem_ctrls.bytes_read::cpu1.inst      1517888                       # Number of bytes read from this memory
system.mem_ctrls.bytes_read::cpu1.data        86708                       # Number of bytes read from this memory
system.mem_ctrls.bytes_read::cpu2.inst    401883456                       # Number of bytes read from this memory
system.mem_ctrls.bytes_read::cpu2.data     54086931                       # Number of bytes read from this memory
system.mem_ctrls.bytes_read::cpu3.inst      7552640                       # Number of bytes read from this memory
system.mem_ctrls.bytes_read::cpu3.data       642165                       # Number of bytes read from this memory
system.mem_ctrls.bytes_read::cpu4.inst    187927424                       # Number of bytes read from this memory
system.mem_ctrls.bytes_read::cpu4.data     48954549                       # Number of bytes read from this memory
system.mem_ctrls.bytes_read::cpu5.inst    188167936                       # Number of bytes read from this memory
system.mem_ctrls.bytes_read::cpu5.data     48789073                       # Number of bytes read from this memory
system.mem_ctrls.bytes_read::cpu6.inst    202802688                       # Number of bytes read from this memory
system.mem_ctrls.bytes_read::cpu6.data     51653811                       # Number of bytes read from this memory
system.mem_ctrls.bytes_read::cpu7.inst    200497472                       # Number of bytes read from this memory
system.mem_ctrls.bytes_read::cpu7.data     50789019                       # Number of bytes read from this memory
system.mem_ctrls.bytes_read::cpu8.inst    192830720                       # Number of bytes read from this memory
system.mem_ctrls.bytes_read::cpu8.data     43297727                       # Number of bytes read from this memory
system.mem_ctrls.bytes_read::cpu9.inst    183848320                       # Number of bytes read from this memory
system.mem_ctrls.bytes_read::cpu9.data     43024518                       # Number of bytes read from this memory
system.mem_ctrls.bytes_read::cpu10.inst      8677120                       # Number of bytes read from this memory
system.mem_ctrls.bytes_read::cpu10.data       721917                       # Number of bytes read from this memory
system.mem_ctrls.bytes_read::cpu11.inst      1734016                       # Number of bytes read from this memory
system.mem_ctrls.bytes_read::cpu11.data        96304                       # Number of bytes read from this memory
system.mem_ctrls.bytes_read::cpu12.inst      1666432                       # Number of bytes read from this memory
system.mem_ctrls.bytes_read::cpu12.data        93556                       # Number of bytes read from this memory
system.mem_ctrls.bytes_read::cpu13.inst      1756096                       # Number of bytes read from this memory
system.mem_ctrls.bytes_read::cpu13.data        91508                       # Number of bytes read from this memory
system.mem_ctrls.bytes_read::cpu14.inst      1740800                       # Number of bytes read from this memory
system.mem_ctrls.bytes_read::cpu14.data        94980                       # Number of bytes read from this memory
system.mem_ctrls.bytes_read::cpu15.inst      1716544                       # Number of bytes read from this memory
system.mem_ctrls.bytes_read::cpu15.data        93228                       # Number of bytes read from this memory
system.mem_ctrls.bytes_read::total         1928324938                       # Number of bytes read from this memory
system.mem_ctrls.bytes_inst_read::cpu0.inst      1407360                       # Number of instructions bytes read from this memory
system.mem_ctrls.bytes_inst_read::cpu1.inst      1517888                       # Number of instructions bytes read from this memory
system.mem_ctrls.bytes_inst_read::cpu2.inst    401883456                       # Number of instructions bytes read from this memory
system.mem_ctrls.bytes_inst_read::cpu3.inst      7552640                       # Number of instructions bytes read from this memory
system.mem_ctrls.bytes_inst_read::cpu4.inst    187927424                       # Number of instructions bytes read from this memory
system.mem_ctrls.bytes_inst_read::cpu5.inst    188167936                       # Number of instructions bytes read from this memory
system.mem_ctrls.bytes_inst_read::cpu6.inst    202802688                       # Number of instructions bytes read from this memory
system.mem_ctrls.bytes_inst_read::cpu7.inst    200497472                       # Number of instructions bytes read from this memory
system.mem_ctrls.bytes_inst_read::cpu8.inst    192830720                       # Number of instructions bytes read from this memory
system.mem_ctrls.bytes_inst_read::cpu9.inst    183848320                       # Number of instructions bytes read from this memory
system.mem_ctrls.bytes_inst_read::cpu10.inst      8677120                       # Number of instructions bytes read from this memory
system.mem_ctrls.bytes_inst_read::cpu11.inst      1734016                       # Number of instructions bytes read from this memory
system.mem_ctrls.bytes_inst_read::cpu12.inst      1666432                       # Number of instructions bytes read from this memory
system.mem_ctrls.bytes_inst_read::cpu13.inst      1756096                       # Number of instructions bytes read from this memory
system.mem_ctrls.bytes_inst_read::cpu14.inst      1740800                       # Number of instructions bytes read from this memory
system.mem_ctrls.bytes_inst_read::cpu15.inst      1716544                       # Number of instructions bytes read from this memory
system.mem_ctrls.bytes_inst_read::total    1585726976                       # Number of instructions bytes read from this memory
system.mem_ctrls.bytes_written::cpu0.data        46792                       # Number of bytes written to this memory
system.mem_ctrls.bytes_written::cpu1.data        45320                       # Number of bytes written to this memory
system.mem_ctrls.bytes_written::cpu2.data      9421118                       # Number of bytes written to this memory
system.mem_ctrls.bytes_written::cpu3.data       158576                       # Number of bytes written to this memory
system.mem_ctrls.bytes_written::cpu4.data      1772076                       # Number of bytes written to this memory
system.mem_ctrls.bytes_written::cpu5.data      1723848                       # Number of bytes written to this memory
system.mem_ctrls.bytes_written::cpu6.data      1986312                       # Number of bytes written to this memory
system.mem_ctrls.bytes_written::cpu7.data      1979344                       # Number of bytes written to this memory
system.mem_ctrls.bytes_written::cpu8.data      3018256                       # Number of bytes written to this memory
system.mem_ctrls.bytes_written::cpu9.data      2713112                       # Number of bytes written to this memory
system.mem_ctrls.bytes_written::cpu10.data       187128                       # Number of bytes written to this memory
system.mem_ctrls.bytes_written::cpu11.data        45924                       # Number of bytes written to this memory
system.mem_ctrls.bytes_written::cpu12.data        45716                       # Number of bytes written to this memory
system.mem_ctrls.bytes_written::cpu13.data        45876                       # Number of bytes written to this memory
system.mem_ctrls.bytes_written::cpu14.data        45740                       # Number of bytes written to this memory
system.mem_ctrls.bytes_written::cpu15.data        45828                       # Number of bytes written to this memory
system.mem_ctrls.bytes_written::total        23280966                       # Number of bytes written to this memory
system.mem_ctrls.num_reads::cpu0.inst        21990                       # Number of read requests responded to by this memory
system.mem_ctrls.num_reads::cpu0.data        11343                       # Number of read requests responded to by this memory
system.mem_ctrls.num_reads::cpu1.inst        23717                       # Number of read requests responded to by this memory
system.mem_ctrls.num_reads::cpu1.data        11841                       # Number of read requests responded to by this memory
system.mem_ctrls.num_reads::cpu2.inst      6279429                       # Number of read requests responded to by this memory
system.mem_ctrls.num_reads::cpu2.data      6769161                       # Number of read requests responded to by this memory
system.mem_ctrls.num_reads::cpu3.inst       118010                       # Number of read requests responded to by this memory
system.mem_ctrls.num_reads::cpu3.data        81640                       # Number of read requests responded to by this memory
system.mem_ctrls.num_reads::cpu4.inst      2936366                       # Number of read requests responded to by this memory
system.mem_ctrls.num_reads::cpu4.data      6121378                       # Number of read requests responded to by this memory
system.mem_ctrls.num_reads::cpu5.inst      2940124                       # Number of read requests responded to by this memory
system.mem_ctrls.num_reads::cpu5.data      6100107                       # Number of read requests responded to by this memory
system.mem_ctrls.num_reads::cpu6.inst      3168792                       # Number of read requests responded to by this memory
system.mem_ctrls.num_reads::cpu6.data      6458629                       # Number of read requests responded to by this memory
system.mem_ctrls.num_reads::cpu7.inst      3132773                       # Number of read requests responded to by this memory
system.mem_ctrls.num_reads::cpu7.data      6351047                       # Number of read requests responded to by this memory
system.mem_ctrls.num_reads::cpu8.inst      3012980                       # Number of read requests responded to by this memory
system.mem_ctrls.num_reads::cpu8.data      5416035                       # Number of read requests responded to by this memory
system.mem_ctrls.num_reads::cpu9.inst      2872630                       # Number of read requests responded to by this memory
system.mem_ctrls.num_reads::cpu9.data      5381389                       # Number of read requests responded to by this memory
system.mem_ctrls.num_reads::cpu10.inst       135580                       # Number of read requests responded to by this memory
system.mem_ctrls.num_reads::cpu10.data        92553                       # Number of read requests responded to by this memory
system.mem_ctrls.num_reads::cpu11.inst        27094                       # Number of read requests responded to by this memory
system.mem_ctrls.num_reads::cpu11.data        14069                       # Number of read requests responded to by this memory
system.mem_ctrls.num_reads::cpu12.inst        26038                       # Number of read requests responded to by this memory
system.mem_ctrls.num_reads::cpu12.data        13468                       # Number of read requests responded to by this memory
system.mem_ctrls.num_reads::cpu13.inst        27439                       # Number of read requests responded to by this memory
system.mem_ctrls.num_reads::cpu13.data        12898                       # Number of read requests responded to by this memory
system.mem_ctrls.num_reads::cpu14.inst        27200                       # Number of read requests responded to by this memory
system.mem_ctrls.num_reads::cpu14.data        13832                       # Number of read requests responded to by this memory
system.mem_ctrls.num_reads::cpu15.inst        26821                       # Number of read requests responded to by this memory
system.mem_ctrls.num_reads::cpu15.data        13294                       # Number of read requests responded to by this memory
system.mem_ctrls.num_reads::total            67639683                       # Number of read requests responded to by this memory
system.mem_ctrls.num_writes::cpu0.data         6209                       # Number of write requests responded to by this memory
system.mem_ctrls.num_writes::cpu1.data         5874                       # Number of write requests responded to by this memory
system.mem_ctrls.num_writes::cpu2.data      1180021                       # Number of write requests responded to by this memory
system.mem_ctrls.num_writes::cpu3.data        20135                       # Number of write requests responded to by this memory
system.mem_ctrls.num_writes::cpu4.data       221883                       # Number of write requests responded to by this memory
system.mem_ctrls.num_writes::cpu5.data       215845                       # Number of write requests responded to by this memory
system.mem_ctrls.num_writes::cpu6.data       248748                       # Number of write requests responded to by this memory
system.mem_ctrls.num_writes::cpu7.data       247914                       # Number of write requests responded to by this memory
system.mem_ctrls.num_writes::cpu8.data       378417                       # Number of write requests responded to by this memory
system.mem_ctrls.num_writes::cpu9.data       340029                       # Number of write requests responded to by this memory
system.mem_ctrls.num_writes::cpu10.data        23673                       # Number of write requests responded to by this memory
system.mem_ctrls.num_writes::cpu11.data         5955                       # Number of write requests responded to by this memory
system.mem_ctrls.num_writes::cpu12.data         5926                       # Number of write requests responded to by this memory
system.mem_ctrls.num_writes::cpu13.data         5947                       # Number of write requests responded to by this memory
system.mem_ctrls.num_writes::cpu14.data         5930                       # Number of write requests responded to by this memory
system.mem_ctrls.num_writes::cpu15.data         5944                       # Number of write requests responded to by this memory
system.mem_ctrls.num_writes::total            2918450                       # Number of write requests responded to by this memory
system.mem_ctrls.bw_read::cpu0.inst     65506327                       # Total read bandwidth from this memory (bytes/s)
system.mem_ctrls.bw_read::cpu0.data      3815245                       # Total read bandwidth from this memory (bytes/s)
system.mem_ctrls.bw_read::cpu1.inst     70650912                       # Total read bandwidth from this memory (bytes/s)
system.mem_ctrls.bw_read::cpu1.data      4035870                       # Total read bandwidth from this memory (bytes/s)
system.mem_ctrls.bw_read::cpu2.inst  18705881219                       # Total read bandwidth from this memory (bytes/s)
system.mem_ctrls.bw_read::cpu2.data   2517505241                       # Total read bandwidth from this memory (bytes/s)
system.mem_ctrls.bw_read::cpu3.inst    351541684                       # Total read bandwidth from this memory (bytes/s)
system.mem_ctrls.bw_read::cpu3.data     29889915                       # Total read bandwidth from this memory (bytes/s)
system.mem_ctrls.bw_read::cpu4.inst   8747182843                       # Total read bandwidth from this memory (bytes/s)
system.mem_ctrls.bw_read::cpu4.data   2278615766                       # Total read bandwidth from this memory (bytes/s)
system.mem_ctrls.bw_read::cpu5.inst   8758377603                       # Total read bandwidth from this memory (bytes/s)
system.mem_ctrls.bw_read::cpu5.data   2270913596                       # Total read bandwidth from this memory (bytes/s)
system.mem_ctrls.bw_read::cpu6.inst   9439559992                       # Total read bandwidth from this memory (bytes/s)
system.mem_ctrls.bw_read::cpu6.data   2404254364                       # Total read bandwidth from this memory (bytes/s)
system.mem_ctrls.bw_read::cpu7.inst   9332262476                       # Total read bandwidth from this memory (bytes/s)
system.mem_ctrls.bw_read::cpu7.data   2364002157                       # Total read bandwidth from this memory (bytes/s)
system.mem_ctrls.bw_read::cpu8.inst   8975409388                       # Total read bandwidth from this memory (bytes/s)
system.mem_ctrls.bw_read::cpu8.data   2015315949                       # Total read bandwidth from this memory (bytes/s)
system.mem_ctrls.bw_read::cpu9.inst   8557318757                       # Total read bandwidth from this memory (bytes/s)
system.mem_ctrls.bw_read::cpu9.data   2002599289                       # Total read bandwidth from this memory (bytes/s)
system.mem_ctrls.bw_read::cpu10.inst    403881209                       # Total read bandwidth from this memory (bytes/s)
system.mem_ctrls.bw_read::cpu10.data     33602014                       # Total read bandwidth from this memory (bytes/s)
system.mem_ctrls.bw_read::cpu11.inst     80710706                       # Total read bandwidth from this memory (bytes/s)
system.mem_ctrls.bw_read::cpu11.data      4482521                       # Total read bandwidth from this memory (bytes/s)
system.mem_ctrls.bw_read::cpu12.inst     77564972                       # Total read bandwidth from this memory (bytes/s)
system.mem_ctrls.bw_read::cpu12.data      4354614                       # Total read bandwidth from this memory (bytes/s)
system.mem_ctrls.bw_read::cpu13.inst     81738431                       # Total read bandwidth from this memory (bytes/s)
system.mem_ctrls.bw_read::cpu13.data      4259289                       # Total read bandwidth from this memory (bytes/s)
system.mem_ctrls.bw_read::cpu14.inst     81026471                       # Total read bandwidth from this memory (bytes/s)
system.mem_ctrls.bw_read::cpu14.data      4420895                       # Total read bandwidth from this memory (bytes/s)
system.mem_ctrls.bw_read::cpu15.inst     79897462                       # Total read bandwidth from this memory (bytes/s)
system.mem_ctrls.bw_read::cpu15.data      4339347                       # Total read bandwidth from this memory (bytes/s)
system.mem_ctrls.bw_read::total           89754919503                       # Total read bandwidth from this memory (bytes/s)
system.mem_ctrls.bw_inst_read::cpu0.inst     65506327                       # Instruction read bandwidth from this memory (bytes/s)
system.mem_ctrls.bw_inst_read::cpu1.inst     70650912                       # Instruction read bandwidth from this memory (bytes/s)
system.mem_ctrls.bw_inst_read::cpu2.inst  18705881219                       # Instruction read bandwidth from this memory (bytes/s)
system.mem_ctrls.bw_inst_read::cpu3.inst    351541684                       # Instruction read bandwidth from this memory (bytes/s)
system.mem_ctrls.bw_inst_read::cpu4.inst   8747182843                       # Instruction read bandwidth from this memory (bytes/s)
system.mem_ctrls.bw_inst_read::cpu5.inst   8758377603                       # Instruction read bandwidth from this memory (bytes/s)
system.mem_ctrls.bw_inst_read::cpu6.inst   9439559992                       # Instruction read bandwidth from this memory (bytes/s)
system.mem_ctrls.bw_inst_read::cpu7.inst   9332262476                       # Instruction read bandwidth from this memory (bytes/s)
system.mem_ctrls.bw_inst_read::cpu8.inst   8975409388                       # Instruction read bandwidth from this memory (bytes/s)
system.mem_ctrls.bw_inst_read::cpu9.inst   8557318757                       # Instruction read bandwidth from this memory (bytes/s)
system.mem_ctrls.bw_inst_read::cpu10.inst    403881209                       # Instruction read bandwidth from this memory (bytes/s)
system.mem_ctrls.bw_inst_read::cpu11.inst     80710706                       # Instruction read bandwidth from this memory (bytes/s)
system.mem_ctrls.bw_inst_read::cpu12.inst     77564972                       # Instruction read bandwidth from this memory (bytes/s)
system.mem_ctrls.bw_inst_read::cpu13.inst     81738431                       # Instruction read bandwidth from this memory (bytes/s)
system.mem_ctrls.bw_inst_read::cpu14.inst     81026471                       # Instruction read bandwidth from this memory (bytes/s)
system.mem_ctrls.bw_inst_read::cpu15.inst     79897462                       # Instruction read bandwidth from this memory (bytes/s)
system.mem_ctrls.bw_inst_read::total      73808513430                       # Instruction read bandwidth from this memory (bytes/s)
system.mem_ctrls.bw_write::cpu0.data      2177959                       # Write bandwidth from this memory (bytes/s)
system.mem_ctrls.bw_write::cpu1.data      2109444                       # Write bandwidth from this memory (bytes/s)
system.mem_ctrls.bw_write::cpu2.data    438510995                       # Write bandwidth from this memory (bytes/s)
system.mem_ctrls.bw_write::cpu3.data      7381005                       # Write bandwidth from this memory (bytes/s)
system.mem_ctrls.bw_write::cpu4.data     82482229                       # Write bandwidth from this memory (bytes/s)
system.mem_ctrls.bw_write::cpu5.data     80237431                       # Write bandwidth from this memory (bytes/s)
system.mem_ctrls.bw_write::cpu6.data     92453958                       # Write bandwidth from this memory (bytes/s)
system.mem_ctrls.bw_write::cpu7.data     92129629                       # Write bandwidth from this memory (bytes/s)
system.mem_ctrls.bw_write::cpu8.data    140486346                       # Write bandwidth from this memory (bytes/s)
system.mem_ctrls.bw_write::cpu9.data    126283255                       # Write bandwidth from this memory (bytes/s)
system.mem_ctrls.bw_write::cpu10.data      8709973                       # Write bandwidth from this memory (bytes/s)
system.mem_ctrls.bw_write::cpu11.data      2137557                       # Write bandwidth from this memory (bytes/s)
system.mem_ctrls.bw_write::cpu12.data      2127876                       # Write bandwidth from this memory (bytes/s)
system.mem_ctrls.bw_write::cpu13.data      2135323                       # Write bandwidth from this memory (bytes/s)
system.mem_ctrls.bw_write::cpu14.data      2128993                       # Write bandwidth from this memory (bytes/s)
system.mem_ctrls.bw_write::cpu15.data      2133089                       # Write bandwidth from this memory (bytes/s)
system.mem_ctrls.bw_write::total           1083625061                       # Write bandwidth from this memory (bytes/s)
system.mem_ctrls.bw_total::cpu0.inst     65506327                       # Total bandwidth to/from this memory (bytes/s)
system.mem_ctrls.bw_total::cpu0.data      5993203                       # Total bandwidth to/from this memory (bytes/s)
system.mem_ctrls.bw_total::cpu1.inst     70650912                       # Total bandwidth to/from this memory (bytes/s)
system.mem_ctrls.bw_total::cpu1.data      6145314                       # Total bandwidth to/from this memory (bytes/s)
system.mem_ctrls.bw_total::cpu2.inst  18705881219                       # Total bandwidth to/from this memory (bytes/s)
system.mem_ctrls.bw_total::cpu2.data   2956016236                       # Total bandwidth to/from this memory (bytes/s)
system.mem_ctrls.bw_total::cpu3.inst    351541684                       # Total bandwidth to/from this memory (bytes/s)
system.mem_ctrls.bw_total::cpu3.data     37270920                       # Total bandwidth to/from this memory (bytes/s)
system.mem_ctrls.bw_total::cpu4.inst   8747182843                       # Total bandwidth to/from this memory (bytes/s)
system.mem_ctrls.bw_total::cpu4.data   2361097994                       # Total bandwidth to/from this memory (bytes/s)
system.mem_ctrls.bw_total::cpu5.inst   8758377603                       # Total bandwidth to/from this memory (bytes/s)
system.mem_ctrls.bw_total::cpu5.data   2351151027                       # Total bandwidth to/from this memory (bytes/s)
system.mem_ctrls.bw_total::cpu6.inst   9439559992                       # Total bandwidth to/from this memory (bytes/s)
system.mem_ctrls.bw_total::cpu6.data   2496708323                       # Total bandwidth to/from this memory (bytes/s)
system.mem_ctrls.bw_total::cpu7.inst   9332262476                       # Total bandwidth to/from this memory (bytes/s)
system.mem_ctrls.bw_total::cpu7.data   2456131786                       # Total bandwidth to/from this memory (bytes/s)
system.mem_ctrls.bw_total::cpu8.inst   8975409388                       # Total bandwidth to/from this memory (bytes/s)
system.mem_ctrls.bw_total::cpu8.data   2155802294                       # Total bandwidth to/from this memory (bytes/s)
system.mem_ctrls.bw_total::cpu9.inst   8557318757                       # Total bandwidth to/from this memory (bytes/s)
system.mem_ctrls.bw_total::cpu9.data   2128882544                       # Total bandwidth to/from this memory (bytes/s)
system.mem_ctrls.bw_total::cpu10.inst    403881209                       # Total bandwidth to/from this memory (bytes/s)
system.mem_ctrls.bw_total::cpu10.data     42311988                       # Total bandwidth to/from this memory (bytes/s)
system.mem_ctrls.bw_total::cpu11.inst     80710706                       # Total bandwidth to/from this memory (bytes/s)
system.mem_ctrls.bw_total::cpu11.data      6620079                       # Total bandwidth to/from this memory (bytes/s)
system.mem_ctrls.bw_total::cpu12.inst     77564972                       # Total bandwidth to/from this memory (bytes/s)
system.mem_ctrls.bw_total::cpu12.data      6482490                       # Total bandwidth to/from this memory (bytes/s)
system.mem_ctrls.bw_total::cpu13.inst     81738431                       # Total bandwidth to/from this memory (bytes/s)
system.mem_ctrls.bw_total::cpu13.data      6394612                       # Total bandwidth to/from this memory (bytes/s)
system.mem_ctrls.bw_total::cpu14.inst     81026471                       # Total bandwidth to/from this memory (bytes/s)
system.mem_ctrls.bw_total::cpu14.data      6549888                       # Total bandwidth to/from this memory (bytes/s)
system.mem_ctrls.bw_total::cpu15.inst     79897462                       # Total bandwidth to/from this memory (bytes/s)
system.mem_ctrls.bw_total::cpu15.data      6472436                       # Total bandwidth to/from this memory (bytes/s)
system.mem_ctrls.bw_total::total          90838544564                       # Total bandwidth to/from this memory (bytes/s)
system.mem_ctrls.readReqs                           0                       # Number of read requests accepted
system.mem_ctrls.writeReqs                          0                       # Number of write requests accepted
system.mem_ctrls.readBursts                         0                       # Number of DRAM read bursts, including those serviced by the write queue
system.mem_ctrls.writeBursts                        0                       # Number of DRAM write bursts, including those merged in the write queue
system.mem_ctrls.bytesReadDRAM                      0                       # Total number of bytes read from DRAM
system.mem_ctrls.bytesReadWrQ                       0                       # Total number of bytes read from write queue
system.mem_ctrls.bytesWritten                       0                       # Total number of bytes written to DRAM
system.mem_ctrls.bytesReadSys                       0                       # Total read bytes from the system interface side
system.mem_ctrls.bytesWrittenSys                    0                       # Total written bytes from the system interface side
system.mem_ctrls.servicedByWrQ                      0                       # Number of DRAM read bursts serviced by the write queue
system.mem_ctrls.mergedWrBursts                     0                       # Number of DRAM write bursts merged with an existing one
system.mem_ctrls.neitherReadNorWriteReqs            0                       # Number of requests that are neither read nor write
system.mem_ctrls.perBankRdBursts::0                 0                       # Per bank write bursts
system.mem_ctrls.perBankRdBursts::1                 0                       # Per bank write bursts
system.mem_ctrls.perBankRdBursts::2                 0                       # Per bank write bursts
system.mem_ctrls.perBankRdBursts::3                 0                       # Per bank write bursts
system.mem_ctrls.perBankRdBursts::4                 0                       # Per bank write bursts
system.mem_ctrls.perBankRdBursts::5                 0                       # Per bank write bursts
system.mem_ctrls.perBankRdBursts::6                 0                       # Per bank write bursts
system.mem_ctrls.perBankRdBursts::7                 0                       # Per bank write bursts
system.mem_ctrls.perBankRdBursts::8                 0                       # Per bank write bursts
system.mem_ctrls.perBankRdBursts::9                 0                       # Per bank write bursts
system.mem_ctrls.perBankRdBursts::10                0                       # Per bank write bursts
system.mem_ctrls.perBankRdBursts::11                0                       # Per bank write bursts
system.mem_ctrls.perBankRdBursts::12                0                       # Per bank write bursts
system.mem_ctrls.perBankRdBursts::13                0                       # Per bank write bursts
system.mem_ctrls.perBankRdBursts::14                0                       # Per bank write bursts
system.mem_ctrls.perBankRdBursts::15                0                       # Per bank write bursts
system.mem_ctrls.perBankWrBursts::0                 0                       # Per bank write bursts
system.mem_ctrls.perBankWrBursts::1                 0                       # Per bank write bursts
system.mem_ctrls.perBankWrBursts::2                 0                       # Per bank write bursts
system.mem_ctrls.perBankWrBursts::3                 0                       # Per bank write bursts
system.mem_ctrls.perBankWrBursts::4                 0                       # Per bank write bursts
system.mem_ctrls.perBankWrBursts::5                 0                       # Per bank write bursts
system.mem_ctrls.perBankWrBursts::6                 0                       # Per bank write bursts
system.mem_ctrls.perBankWrBursts::7                 0                       # Per bank write bursts
system.mem_ctrls.perBankWrBursts::8                 0                       # Per bank write bursts
system.mem_ctrls.perBankWrBursts::9                 0                       # Per bank write bursts
system.mem_ctrls.perBankWrBursts::10                0                       # Per bank write bursts
system.mem_ctrls.perBankWrBursts::11                0                       # Per bank write bursts
system.mem_ctrls.perBankWrBursts::12                0                       # Per bank write bursts
system.mem_ctrls.perBankWrBursts::13                0                       # Per bank write bursts
system.mem_ctrls.perBankWrBursts::14                0                       # Per bank write bursts
system.mem_ctrls.perBankWrBursts::15                0                       # Per bank write bursts
system.mem_ctrls.numRdRetry                         0                       # Number of times read queue was full causing retry
system.mem_ctrls.numWrRetry                         0                       # Number of times write queue was full causing retry
system.mem_ctrls.totGap                             0                       # Total gap between requests
system.mem_ctrls.readPktSize::0                     0                       # Read request sizes (log2)
system.mem_ctrls.readPktSize::1                     0                       # Read request sizes (log2)
system.mem_ctrls.readPktSize::2                     0                       # Read request sizes (log2)
system.mem_ctrls.readPktSize::3                     0                       # Read request sizes (log2)
system.mem_ctrls.readPktSize::4                     0                       # Read request sizes (log2)
system.mem_ctrls.readPktSize::5                     0                       # Read request sizes (log2)
system.mem_ctrls.readPktSize::6                     0                       # Read request sizes (log2)
system.mem_ctrls.writePktSize::0                    0                       # Write request sizes (log2)
system.mem_ctrls.writePktSize::1                    0                       # Write request sizes (log2)
system.mem_ctrls.writePktSize::2                    0                       # Write request sizes (log2)
system.mem_ctrls.writePktSize::3                    0                       # Write request sizes (log2)
system.mem_ctrls.writePktSize::4                    0                       # Write request sizes (log2)
system.mem_ctrls.writePktSize::5                    0                       # Write request sizes (log2)
system.mem_ctrls.writePktSize::6                    0                       # Write request sizes (log2)
system.mem_ctrls.rdQLenPdf::0                       0                       # What read queue length does an incoming req see
system.mem_ctrls.rdQLenPdf::1                       0                       # What read queue length does an incoming req see
system.mem_ctrls.rdQLenPdf::2                       0                       # What read queue length does an incoming req see
system.mem_ctrls.rdQLenPdf::3                       0                       # What read queue length does an incoming req see
system.mem_ctrls.rdQLenPdf::4                       0                       # What read queue length does an incoming req see
system.mem_ctrls.rdQLenPdf::5                       0                       # What read queue length does an incoming req see
system.mem_ctrls.rdQLenPdf::6                       0                       # What read queue length does an incoming req see
system.mem_ctrls.rdQLenPdf::7                       0                       # What read queue length does an incoming req see
system.mem_ctrls.rdQLenPdf::8                       0                       # What read queue length does an incoming req see
system.mem_ctrls.rdQLenPdf::9                       0                       # What read queue length does an incoming req see
system.mem_ctrls.rdQLenPdf::10                      0                       # What read queue length does an incoming req see
system.mem_ctrls.rdQLenPdf::11                      0                       # What read queue length does an incoming req see
system.mem_ctrls.rdQLenPdf::12                      0                       # What read queue length does an incoming req see
system.mem_ctrls.rdQLenPdf::13                      0                       # What read queue length does an incoming req see
system.mem_ctrls.rdQLenPdf::14                      0                       # What read queue length does an incoming req see
system.mem_ctrls.rdQLenPdf::15                      0                       # What read queue length does an incoming req see
system.mem_ctrls.rdQLenPdf::16                      0                       # What read queue length does an incoming req see
system.mem_ctrls.rdQLenPdf::17                      0                       # What read queue length does an incoming req see
system.mem_ctrls.rdQLenPdf::18                      0                       # What read queue length does an incoming req see
system.mem_ctrls.rdQLenPdf::19                      0                       # What read queue length does an incoming req see
system.mem_ctrls.rdQLenPdf::20                      0                       # What read queue length does an incoming req see
system.mem_ctrls.rdQLenPdf::21                      0                       # What read queue length does an incoming req see
system.mem_ctrls.rdQLenPdf::22                      0                       # What read queue length does an incoming req see
system.mem_ctrls.rdQLenPdf::23                      0                       # What read queue length does an incoming req see
system.mem_ctrls.rdQLenPdf::24                      0                       # What read queue length does an incoming req see
system.mem_ctrls.rdQLenPdf::25                      0                       # What read queue length does an incoming req see
system.mem_ctrls.rdQLenPdf::26                      0                       # What read queue length does an incoming req see
system.mem_ctrls.rdQLenPdf::27                      0                       # What read queue length does an incoming req see
system.mem_ctrls.rdQLenPdf::28                      0                       # What read queue length does an incoming req see
system.mem_ctrls.rdQLenPdf::29                      0                       # What read queue length does an incoming req see
system.mem_ctrls.rdQLenPdf::30                      0                       # What read queue length does an incoming req see
system.mem_ctrls.rdQLenPdf::31                      0                       # What read queue length does an incoming req see
system.mem_ctrls.wrQLenPdf::0                       0                       # What write queue length does an incoming req see
system.mem_ctrls.wrQLenPdf::1                       0                       # What write queue length does an incoming req see
system.mem_ctrls.wrQLenPdf::2                       0                       # What write queue length does an incoming req see
system.mem_ctrls.wrQLenPdf::3                       0                       # What write queue length does an incoming req see
system.mem_ctrls.wrQLenPdf::4                       0                       # What write queue length does an incoming req see
system.mem_ctrls.wrQLenPdf::5                       0                       # What write queue length does an incoming req see
system.mem_ctrls.wrQLenPdf::6                       0                       # What write queue length does an incoming req see
system.mem_ctrls.wrQLenPdf::7                       0                       # What write queue length does an incoming req see
system.mem_ctrls.wrQLenPdf::8                       0                       # What write queue length does an incoming req see
system.mem_ctrls.wrQLenPdf::9                       0                       # What write queue length does an incoming req see
system.mem_ctrls.wrQLenPdf::10                      0                       # What write queue length does an incoming req see
system.mem_ctrls.wrQLenPdf::11                      0                       # What write queue length does an incoming req see
system.mem_ctrls.wrQLenPdf::12                      0                       # What write queue length does an incoming req see
system.mem_ctrls.wrQLenPdf::13                      0                       # What write queue length does an incoming req see
system.mem_ctrls.wrQLenPdf::14                      0                       # What write queue length does an incoming req see
system.mem_ctrls.wrQLenPdf::15                      0                       # What write queue length does an incoming req see
system.mem_ctrls.wrQLenPdf::16                      0                       # What write queue length does an incoming req see
system.mem_ctrls.wrQLenPdf::17                      0                       # What write queue length does an incoming req see
system.mem_ctrls.wrQLenPdf::18                      0                       # What write queue length does an incoming req see
system.mem_ctrls.wrQLenPdf::19                      0                       # What write queue length does an incoming req see
system.mem_ctrls.wrQLenPdf::20                      0                       # What write queue length does an incoming req see
system.mem_ctrls.wrQLenPdf::21                      0                       # What write queue length does an incoming req see
system.mem_ctrls.wrQLenPdf::22                      0                       # What write queue length does an incoming req see
system.mem_ctrls.wrQLenPdf::23                      0                       # What write queue length does an incoming req see
system.mem_ctrls.wrQLenPdf::24                      0                       # What write queue length does an incoming req see
system.mem_ctrls.wrQLenPdf::25                      0                       # What write queue length does an incoming req see
system.mem_ctrls.wrQLenPdf::26                      0                       # What write queue length does an incoming req see
system.mem_ctrls.wrQLenPdf::27                      0                       # What write queue length does an incoming req see
system.mem_ctrls.wrQLenPdf::28                      0                       # What write queue length does an incoming req see
system.mem_ctrls.wrQLenPdf::29                      0                       # What write queue length does an incoming req see
system.mem_ctrls.wrQLenPdf::30                      0                       # What write queue length does an incoming req see
system.mem_ctrls.wrQLenPdf::31                      0                       # What write queue length does an incoming req see
system.mem_ctrls.wrQLenPdf::32                      0                       # What write queue length does an incoming req see
system.mem_ctrls.wrQLenPdf::33                      0                       # What write queue length does an incoming req see
system.mem_ctrls.wrQLenPdf::34                      0                       # What write queue length does an incoming req see
system.mem_ctrls.wrQLenPdf::35                      0                       # What write queue length does an incoming req see
system.mem_ctrls.wrQLenPdf::36                      0                       # What write queue length does an incoming req see
system.mem_ctrls.wrQLenPdf::37                      0                       # What write queue length does an incoming req see
system.mem_ctrls.wrQLenPdf::38                      0                       # What write queue length does an incoming req see
system.mem_ctrls.wrQLenPdf::39                      0                       # What write queue length does an incoming req see
system.mem_ctrls.wrQLenPdf::40                      0                       # What write queue length does an incoming req see
system.mem_ctrls.wrQLenPdf::41                      0                       # What write queue length does an incoming req see
system.mem_ctrls.wrQLenPdf::42                      0                       # What write queue length does an incoming req see
system.mem_ctrls.wrQLenPdf::43                      0                       # What write queue length does an incoming req see
system.mem_ctrls.wrQLenPdf::44                      0                       # What write queue length does an incoming req see
system.mem_ctrls.wrQLenPdf::45                      0                       # What write queue length does an incoming req see
system.mem_ctrls.wrQLenPdf::46                      0                       # What write queue length does an incoming req see
system.mem_ctrls.wrQLenPdf::47                      0                       # What write queue length does an incoming req see
system.mem_ctrls.wrQLenPdf::48                      0                       # What write queue length does an incoming req see
system.mem_ctrls.wrQLenPdf::49                      0                       # What write queue length does an incoming req see
system.mem_ctrls.wrQLenPdf::50                      0                       # What write queue length does an incoming req see
system.mem_ctrls.wrQLenPdf::51                      0                       # What write queue length does an incoming req see
system.mem_ctrls.wrQLenPdf::52                      0                       # What write queue length does an incoming req see
system.mem_ctrls.wrQLenPdf::53                      0                       # What write queue length does an incoming req see
system.mem_ctrls.wrQLenPdf::54                      0                       # What write queue length does an incoming req see
system.mem_ctrls.wrQLenPdf::55                      0                       # What write queue length does an incoming req see
system.mem_ctrls.wrQLenPdf::56                      0                       # What write queue length does an incoming req see
system.mem_ctrls.wrQLenPdf::57                      0                       # What write queue length does an incoming req see
system.mem_ctrls.wrQLenPdf::58                      0                       # What write queue length does an incoming req see
system.mem_ctrls.wrQLenPdf::59                      0                       # What write queue length does an incoming req see
system.mem_ctrls.wrQLenPdf::60                      0                       # What write queue length does an incoming req see
system.mem_ctrls.wrQLenPdf::61                      0                       # What write queue length does an incoming req see
system.mem_ctrls.wrQLenPdf::62                      0                       # What write queue length does an incoming req see
system.mem_ctrls.wrQLenPdf::63                      0                       # What write queue length does an incoming req see
system.mem_ctrls.totQLat                            0                       # Total ticks spent queuing
system.mem_ctrls.totMemAccLat                       0                       # Total ticks spent from burst creation until serviced by the DRAM
system.mem_ctrls.totBusLat                          0                       # Total ticks spent in databus transfers
system.mem_ctrls.avgQLat                          nan                       # Average queueing delay per DRAM burst
system.mem_ctrls.avgBusLat                        nan                       # Average bus latency per DRAM burst
system.mem_ctrls.avgMemAccLat                     nan                       # Average memory access latency per DRAM burst
system.mem_ctrls.avgRdBW                         0.00                       # Average DRAM read bandwidth in MiByte/s
system.mem_ctrls.avgWrBW                         0.00                       # Average achieved write bandwidth in MiByte/s
system.mem_ctrls.avgRdBWSys                      0.00                       # Average system read bandwidth in MiByte/s
system.mem_ctrls.avgWrBWSys                      0.00                       # Average system write bandwidth in MiByte/s
system.mem_ctrls.peakBW                      12800.00                       # Theoretical peak bandwidth in MiByte/s
system.mem_ctrls.busUtil                         0.00                       # Data bus utilization in percentage
system.mem_ctrls.busUtilRead                     0.00                       # Data bus utilization in percentage for reads
system.mem_ctrls.busUtilWrite                    0.00                       # Data bus utilization in percentage for writes
system.mem_ctrls.avgRdQLen                       0.00                       # Average read queue length when enqueuing
system.mem_ctrls.avgWrQLen                       0.00                       # Average write queue length when enqueuing
system.mem_ctrls.readRowHits                        0                       # Number of row buffer hits during reads
system.mem_ctrls.writeRowHits                       0                       # Number of row buffer hits during writes
system.mem_ctrls.readRowHitRate                   nan                       # Row buffer hit rate for reads
system.mem_ctrls.writeRowHitRate                  nan                       # Row buffer hit rate for writes
system.mem_ctrls.avgGap                           nan                       # Average gap between requests
system.mem_ctrls.pageHitRate                      nan                       # Row buffer hit rate, read and write combined
system.mem_ctrls.memoryStateTime::IDLE    20764923750                       # Time in different power states
system.mem_ctrls.memoryStateTime::REF       717340000                       # Time in different power states
system.mem_ctrls.memoryStateTime::PRE_PDN            0                       # Time in different power states
system.mem_ctrls.memoryStateTime::ACT               0                       # Time in different power states
system.mem_ctrls.memoryStateTime::ACT_PDN            0                       # Time in different power states
system.cpufreq1700MHz.voltage_domain.voltage     0.920000                       # Voltage in Volts
system.cpufreq1700MHz.clock                       588                       # Clock period in ticks
system.cpufreq1100MHz.voltage_domain.voltage     0.800000                       # Voltage in Volts
system.cpufreq1100MHz.clock                       909                       # Clock period in ticks
system.cpufreq1200MHz.voltage_domain.voltage     0.800000                       # Voltage in Volts
system.cpufreq1200MHz.clock                       833                       # Clock period in ticks
system.cpufreq500MHz.voltage_domain.voltage     0.800000                       # Voltage in Volts
system.cpufreq500MHz.clock                       2000                       # Clock period in ticks
system.cpufreq1900MHz.voltage_domain.voltage     1.030000                       # Voltage in Volts
system.cpufreq1900MHz.clock                       526                       # Clock period in ticks
system.disk0.dma_read_full_pages                    0                       # Number of full page size DMA reads (not PRD).
system.disk0.dma_read_bytes                         0                       # Number of bytes transfered via DMA reads (not PRD).
system.disk0.dma_read_txs                           0                       # Number of DMA read transactions (not PRD).
system.disk0.dma_write_full_pages                   0                       # Number of full page size DMA writes.
system.disk0.dma_write_bytes                        0                       # Number of bytes transfered via DMA writes.
system.disk0.dma_write_txs                          0                       # Number of DMA write transactions.
system.ruby.clk_domain.clock                      500                       # Clock period in ticks
system.ruby.outstanding_req_hist::bucket_size            2                      
system.ruby.outstanding_req_hist::max_bucket           19                      
system.ruby.outstanding_req_hist::samples     70558283                      
system.ruby.outstanding_req_hist::mean       2.372415                      
system.ruby.outstanding_req_hist::gmean      2.086774                      
system.ruby.outstanding_req_hist::stdev      1.179505                      
system.ruby.outstanding_req_hist         |    18189126     25.78%     25.78% |    38698109     54.85%     80.62% |    13609544     19.29%     99.91% |       61257      0.09%    100.00% |         246      0.00%    100.00% |           1      0.00%    100.00% |           0      0.00%    100.00% |           0      0.00%    100.00% |           0      0.00%    100.00% |           0      0.00%    100.00%
system.ruby.outstanding_req_hist::total      70558283                      
system.ruby.latency_hist::bucket_size             512                      
system.ruby.latency_hist::max_bucket             5119                      
system.ruby.latency_hist::samples            70558270                      
system.ruby.latency_hist::mean               3.206230                      
system.ruby.latency_hist::gmean              3.022571                      
system.ruby.latency_hist::stdev              6.319798                      
system.ruby.latency_hist                 |    70557297    100.00%    100.00% |         548      0.00%    100.00% |         259      0.00%    100.00% |         104      0.00%    100.00% |          37      0.00%    100.00% |          15      0.00%    100.00% |           6      0.00%    100.00% |           3      0.00%    100.00% |           1      0.00%    100.00% |           0      0.00%    100.00%
system.ruby.latency_hist::total              70558270                      
system.ruby.hit_latency_hist::bucket_size            1                      
system.ruby.hit_latency_hist::max_bucket            9                      
system.ruby.hit_latency_hist::samples        70400402                      
system.ruby.hit_latency_hist::mean           3.000036                      
system.ruby.hit_latency_hist::gmean          3.000031                      
system.ruby.hit_latency_hist::stdev          0.005998                      
system.ruby.hit_latency_hist             |           0      0.00%      0.00% |           0      0.00%      0.00% |           0      0.00%      0.00% |    70397869    100.00%    100.00% |        2533      0.00%    100.00% |           0      0.00%    100.00% |           0      0.00%    100.00% |           0      0.00%    100.00% |           0      0.00%    100.00% |           0      0.00%    100.00%
system.ruby.hit_latency_hist::total          70400402                      
system.ruby.miss_latency_hist::bucket_size          512                      
system.ruby.miss_latency_hist::max_bucket         5119                      
system.ruby.miss_latency_hist::samples         157868                      
system.ruby.miss_latency_hist::mean         95.157416                      
system.ruby.miss_latency_hist::gmean        85.121075                      
system.ruby.miss_latency_hist::stdev        96.834749                      
system.ruby.miss_latency_hist            |      156895     99.38%     99.38% |         548      0.35%     99.73% |         259      0.16%     99.89% |         104      0.07%     99.96% |          37      0.02%     99.98% |          15      0.01%     99.99% |           6      0.00%    100.00% |           3      0.00%    100.00% |           1      0.00%    100.00% |           0      0.00%    100.00%
system.ruby.miss_latency_hist::total           157868                      
system.ruby.l2_cntrl5.L2cache.demand_hits         6564                       # Number of cache demand hits
system.ruby.l2_cntrl5.L2cache.demand_misses         2407                       # Number of cache demand misses
system.ruby.l2_cntrl5.L2cache.demand_accesses         8971                       # Number of cache demand accesses
system.ruby.l2_cntrl5.fully_busy_cycles            33                       # cycles for which number of transistions == max transitions
system.ruby.l2_cntrl4.L2cache.demand_hits         6621                       # Number of cache demand hits
system.ruby.l2_cntrl4.L2cache.demand_misses         2398                       # Number of cache demand misses
system.ruby.l2_cntrl4.L2cache.demand_accesses         9019                       # Number of cache demand accesses
system.ruby.l2_cntrl11.L2cache.demand_hits         7148                       # Number of cache demand hits
system.ruby.l2_cntrl11.L2cache.demand_misses         2723                       # Number of cache demand misses
system.ruby.l2_cntrl11.L2cache.demand_accesses         9871                       # Number of cache demand accesses
system.ruby.l2_cntrl11.fully_busy_cycles          313                       # cycles for which number of transistions == max transitions
system.ruby.l2_cntrl10.L2cache.demand_hits         6563                       # Number of cache demand hits
system.ruby.l2_cntrl10.L2cache.demand_misses         2465                       # Number of cache demand misses
system.ruby.l2_cntrl10.L2cache.demand_accesses         9028                       # Number of cache demand accesses
system.ruby.l2_cntrl13.L2cache.demand_hits         6501                       # Number of cache demand hits
system.ruby.l2_cntrl13.L2cache.demand_misses         2967                       # Number of cache demand misses
system.ruby.l2_cntrl13.L2cache.demand_accesses         9468                       # Number of cache demand accesses
system.ruby.l2_cntrl13.fully_busy_cycles          461                       # cycles for which number of transistions == max transitions
system.ruby.l2_cntrl12.L2cache.demand_hits         7217                       # Number of cache demand hits
system.ruby.l2_cntrl12.L2cache.demand_misses         2999                       # Number of cache demand misses
system.ruby.l2_cntrl12.L2cache.demand_accesses        10216                       # Number of cache demand accesses
system.ruby.l2_cntrl15.L2cache.demand_hits         8228                       # Number of cache demand hits
system.ruby.l2_cntrl15.L2cache.demand_misses         3577                       # Number of cache demand misses
system.ruby.l2_cntrl15.L2cache.demand_accesses        11805                       # Number of cache demand accesses
system.ruby.l2_cntrl15.fully_busy_cycles         1423                       # cycles for which number of transistions == max transitions
system.ruby.l2_cntrl14.L2cache.demand_hits         7009                       # Number of cache demand hits
system.ruby.l2_cntrl14.L2cache.demand_misses         3058                       # Number of cache demand misses
system.ruby.l2_cntrl14.L2cache.demand_accesses        10067                       # Number of cache demand accesses
system.ruby.l1_cntrl4.L1Dcache.demand_hits      6338342                       # Number of cache demand hits
system.ruby.l1_cntrl4.L1Dcache.demand_misses         4925                       # Number of cache demand misses
system.ruby.l1_cntrl4.L1Dcache.demand_accesses      6343267                       # Number of cache demand accesses
system.ruby.l1_cntrl4.L1Icache.demand_hits      2934713                       # Number of cache demand hits
system.ruby.l1_cntrl4.L1Icache.demand_misses         1654                       # Number of cache demand misses
system.ruby.l1_cntrl4.L1Icache.demand_accesses      2936367                       # Number of cache demand accesses
system.ruby.l1_cntrl4.sequencer.store_waiting_on_load        12092                       # Number of times a store aliased with a pending load
system.ruby.l1_cntrl4.sequencer.store_waiting_on_store        26836                       # Number of times a store aliased with a pending store
system.ruby.l1_cntrl4.sequencer.load_waiting_on_store        57323                       # Number of times a load aliased with a pending store
system.ruby.l1_cntrl4.sequencer.load_waiting_on_load       214358                       # Number of times a load aliased with a pending load
system.ruby.l1_cntrl4.fully_busy_cycles          6924                       # cycles for which number of transistions == max transitions
system.ruby.l1_cntrl5.L1Dcache.demand_hits      6311063                       # Number of cache demand hits
system.ruby.l1_cntrl5.L1Dcache.demand_misses         4905                       # Number of cache demand misses
system.ruby.l1_cntrl5.L1Dcache.demand_accesses      6315968                       # Number of cache demand accesses
system.ruby.l1_cntrl5.L1Icache.demand_hits      2938348                       # Number of cache demand hits
system.ruby.l1_cntrl5.L1Icache.demand_misses         1777                       # Number of cache demand misses
system.ruby.l1_cntrl5.L1Icache.demand_accesses      2940125                       # Number of cache demand accesses
system.ruby.l1_cntrl5.sequencer.store_waiting_on_load        12126                       # Number of times a store aliased with a pending load
system.ruby.l1_cntrl5.sequencer.store_waiting_on_store        25239                       # Number of times a store aliased with a pending store
system.ruby.l1_cntrl5.sequencer.load_waiting_on_store        56925                       # Number of times a load aliased with a pending store
system.ruby.l1_cntrl5.sequencer.load_waiting_on_load       217598                       # Number of times a load aliased with a pending load
system.ruby.l1_cntrl5.fully_busy_cycles          6834                       # cycles for which number of transistions == max transitions
system.ruby.l1_cntrl6.L1Dcache.demand_hits      6697968                       # Number of cache demand hits
system.ruby.l1_cntrl6.L1Dcache.demand_misses         9418                       # Number of cache demand misses
system.ruby.l1_cntrl6.L1Dcache.demand_accesses      6707386                       # Number of cache demand accesses
system.ruby.l1_cntrl6.L1Icache.demand_hits      3166920                       # Number of cache demand hits
system.ruby.l1_cntrl6.L1Icache.demand_misses         1873                       # Number of cache demand misses
system.ruby.l1_cntrl6.L1Icache.demand_accesses      3168793                       # Number of cache demand accesses
system.ruby.l1_cntrl6.sequencer.store_waiting_on_load        15905                       # Number of times a store aliased with a pending load
system.ruby.l1_cntrl6.sequencer.store_waiting_on_store        46573                       # Number of times a store aliased with a pending store
system.ruby.l1_cntrl6.sequencer.load_waiting_on_store        60323                       # Number of times a load aliased with a pending store
system.ruby.l1_cntrl6.sequencer.load_waiting_on_load       235107                       # Number of times a load aliased with a pending load
system.ruby.l1_cntrl6.fully_busy_cycles          6532                       # cycles for which number of transistions == max transitions
system.ruby.l1_cntrl7.L1Dcache.demand_hits      6589882                       # Number of cache demand hits
system.ruby.l1_cntrl7.L1Dcache.demand_misses         9086                       # Number of cache demand misses
system.ruby.l1_cntrl7.L1Dcache.demand_accesses      6598968                       # Number of cache demand accesses
system.ruby.l1_cntrl7.L1Icache.demand_hits      3130785                       # Number of cache demand hits
system.ruby.l1_cntrl7.L1Icache.demand_misses         1989                       # Number of cache demand misses
system.ruby.l1_cntrl7.L1Icache.demand_accesses      3132774                       # Number of cache demand accesses
system.ruby.l1_cntrl7.sequencer.store_waiting_on_load        17367                       # Number of times a store aliased with a pending load
system.ruby.l1_cntrl7.sequencer.store_waiting_on_store        48354                       # Number of times a store aliased with a pending store
system.ruby.l1_cntrl7.sequencer.load_waiting_on_store        60699                       # Number of times a load aliased with a pending store
system.ruby.l1_cntrl7.sequencer.load_waiting_on_load       242159                       # Number of times a load aliased with a pending load
system.ruby.l1_cntrl7.fully_busy_cycles          7783                       # cycles for which number of transistions == max transitions
system.ruby.l1_cntrl0.L1Dcache.demand_hits        17289                       # Number of cache demand hits
system.ruby.l1_cntrl0.L1Dcache.demand_misses          263                       # Number of cache demand misses
system.ruby.l1_cntrl0.L1Dcache.demand_accesses        17552                       # Number of cache demand accesses
system.ruby.l1_cntrl0.L1Icache.demand_hits        21767                       # Number of cache demand hits
system.ruby.l1_cntrl0.L1Icache.demand_misses          224                       # Number of cache demand misses
system.ruby.l1_cntrl0.L1Icache.demand_accesses        21991                       # Number of cache demand accesses
system.ruby.l1_cntrl0.sequencer.store_waiting_on_load          108                       # Number of times a store aliased with a pending load
system.ruby.l1_cntrl0.sequencer.store_waiting_on_store         5680                       # Number of times a store aliased with a pending store
system.ruby.l1_cntrl0.sequencer.load_waiting_on_store          287                       # Number of times a load aliased with a pending store
system.ruby.l1_cntrl0.sequencer.load_waiting_on_load         4526                       # Number of times a load aliased with a pending load
system.ruby.l1_cntrl0.fully_busy_cycles           162                       # cycles for which number of transistions == max transitions
system.ruby.l1_cntrl1.L1Dcache.demand_hits        17257                       # Number of cache demand hits
system.ruby.l1_cntrl1.L1Dcache.demand_misses          460                       # Number of cache demand misses
system.ruby.l1_cntrl1.L1Dcache.demand_accesses        17717                       # Number of cache demand accesses
system.ruby.l1_cntrl1.L1Icache.demand_hits        23404                       # Number of cache demand hits
system.ruby.l1_cntrl1.L1Icache.demand_misses          314                       # Number of cache demand misses
system.ruby.l1_cntrl1.L1Icache.demand_accesses        23718                       # Number of cache demand accesses
system.ruby.l1_cntrl1.sequencer.store_waiting_on_load           95                       # Number of times a store aliased with a pending load
system.ruby.l1_cntrl1.sequencer.store_waiting_on_store         4604                       # Number of times a store aliased with a pending store
system.ruby.l1_cntrl1.sequencer.load_waiting_on_store          184                       # Number of times a load aliased with a pending store
system.ruby.l1_cntrl1.sequencer.load_waiting_on_load         5052                       # Number of times a load aliased with a pending load
system.ruby.l1_cntrl1.fully_busy_cycles           251                       # cycles for which number of transistions == max transitions
system.ruby.l1_cntrl2.L1Dcache.demand_hits      7885570                       # Number of cache demand hits
system.ruby.l1_cntrl2.L1Dcache.demand_misses        63626                       # Number of cache demand misses
system.ruby.l1_cntrl2.L1Dcache.demand_accesses      7949196                       # Number of cache demand accesses
system.ruby.l1_cntrl2.L1Icache.demand_hits      6270242                       # Number of cache demand hits
system.ruby.l1_cntrl2.L1Icache.demand_misses         9188                       # Number of cache demand misses
system.ruby.l1_cntrl2.L1Icache.demand_accesses      6279430                       # Number of cache demand accesses
system.ruby.l1_cntrl2.sequencer.store_waiting_on_load       279239                       # Number of times a store aliased with a pending load
system.ruby.l1_cntrl2.sequencer.store_waiting_on_store       436988                       # Number of times a store aliased with a pending store
system.ruby.l1_cntrl2.sequencer.load_waiting_on_store       117091                       # Number of times a load aliased with a pending store
system.ruby.l1_cntrl2.sequencer.load_waiting_on_load      1457634                       # Number of times a load aliased with a pending load
system.ruby.l1_cntrl2.fully_busy_cycles         28954                       # cycles for which number of transistions == max transitions
system.ruby.l1_cntrl3.L1Dcache.demand_hits        99323                       # Number of cache demand hits
system.ruby.l1_cntrl3.L1Dcache.demand_misses         2457                       # Number of cache demand misses
system.ruby.l1_cntrl3.L1Dcache.demand_accesses       101780                       # Number of cache demand accesses
system.ruby.l1_cntrl3.L1Icache.demand_hits       116982                       # Number of cache demand hits
system.ruby.l1_cntrl3.L1Icache.demand_misses         1029                       # Number of cache demand misses
system.ruby.l1_cntrl3.L1Icache.demand_accesses       118011                       # Number of cache demand accesses
system.ruby.l1_cntrl3.sequencer.store_waiting_on_load          364                       # Number of times a store aliased with a pending load
system.ruby.l1_cntrl3.sequencer.store_waiting_on_store         9875                       # Number of times a store aliased with a pending store
system.ruby.l1_cntrl3.sequencer.load_waiting_on_store         2888                       # Number of times a load aliased with a pending store
system.ruby.l1_cntrl3.sequencer.load_waiting_on_load        25480                       # Number of times a load aliased with a pending load
system.ruby.l1_cntrl3.fully_busy_cycles           572                       # cycles for which number of transistions == max transitions
system.ruby.l2_cntrl1.L2cache.demand_hits         8138                       # Number of cache demand hits
system.ruby.l2_cntrl1.L2cache.demand_misses         3155                       # Number of cache demand misses
system.ruby.l2_cntrl1.L2cache.demand_accesses        11293                       # Number of cache demand accesses
system.ruby.l2_cntrl1.fully_busy_cycles            43                       # cycles for which number of transistions == max transitions
system.ruby.l2_cntrl0.L2cache.demand_hits         7081                       # Number of cache demand hits
system.ruby.l2_cntrl0.L2cache.demand_misses         2539                       # Number of cache demand misses
system.ruby.l2_cntrl0.L2cache.demand_accesses         9620                       # Number of cache demand accesses
system.ruby.l2_cntrl3.L2cache.demand_hits         7211                       # Number of cache demand hits
system.ruby.l2_cntrl3.L2cache.demand_misses         3023                       # Number of cache demand misses
system.ruby.l2_cntrl3.L2cache.demand_accesses        10234                       # Number of cache demand accesses
system.ruby.l2_cntrl3.fully_busy_cycles           675                       # cycles for which number of transistions == max transitions
system.ruby.l2_cntrl2.L2cache.demand_hits         6579                       # Number of cache demand hits
system.ruby.l2_cntrl2.L2cache.demand_misses         2235                       # Number of cache demand misses
system.ruby.l2_cntrl2.L2cache.demand_accesses         8814                       # Number of cache demand accesses
system.ruby.l1_cntrl8.L1Dcache.demand_hits      5777480                       # Number of cache demand hits
system.ruby.l1_cntrl8.L1Dcache.demand_misses        16984                       # Number of cache demand misses
system.ruby.l1_cntrl8.L1Dcache.demand_accesses      5794464                       # Number of cache demand accesses
system.ruby.l1_cntrl8.L1Icache.demand_hits      3008926                       # Number of cache demand hits
system.ruby.l1_cntrl8.L1Icache.demand_misses         4055                       # Number of cache demand misses
system.ruby.l1_cntrl8.L1Icache.demand_accesses      3012981                       # Number of cache demand accesses
system.ruby.l1_cntrl8.sequencer.store_waiting_on_load        20144                       # Number of times a store aliased with a pending load
system.ruby.l1_cntrl8.sequencer.store_waiting_on_store       122821                       # Number of times a store aliased with a pending store
system.ruby.l1_cntrl8.sequencer.load_waiting_on_store        60421                       # Number of times a load aliased with a pending store
system.ruby.l1_cntrl8.sequencer.load_waiting_on_load       297525                       # Number of times a load aliased with a pending load
system.ruby.l1_cntrl8.fully_busy_cycles          9496                       # cycles for which number of transistions == max transitions
system.ruby.l1_cntrl9.L1Dcache.demand_hits      5708651                       # Number of cache demand hits
system.ruby.l1_cntrl9.L1Dcache.demand_misses        12777                       # Number of cache demand misses
system.ruby.l1_cntrl9.L1Dcache.demand_accesses      5721428                       # Number of cache demand accesses
system.ruby.l1_cntrl9.L1Icache.demand_hits      2869716                       # Number of cache demand hits
system.ruby.l1_cntrl9.L1Icache.demand_misses         2915                       # Number of cache demand misses
system.ruby.l1_cntrl9.L1Icache.demand_accesses      2872631                       # Number of cache demand accesses
system.ruby.l1_cntrl9.sequencer.store_waiting_on_load        13246                       # Number of times a store aliased with a pending load
system.ruby.l1_cntrl9.sequencer.store_waiting_on_store        91454                       # Number of times a store aliased with a pending store
system.ruby.l1_cntrl9.sequencer.load_waiting_on_store        62607                       # Number of times a load aliased with a pending store
system.ruby.l1_cntrl9.sequencer.load_waiting_on_load       258413                       # Number of times a load aliased with a pending load
system.ruby.l1_cntrl9.fully_busy_cycles          6108                       # cycles for which number of transistions == max transitions
system.ruby.l2_cntrl7.L2cache.demand_hits         6860                       # Number of cache demand hits
system.ruby.l2_cntrl7.L2cache.demand_misses         3452                       # Number of cache demand misses
system.ruby.l2_cntrl7.L2cache.demand_accesses        10312                       # Number of cache demand accesses
system.ruby.l2_cntrl7.fully_busy_cycles           255                       # cycles for which number of transistions == max transitions
system.ruby.l2_cntrl6.L2cache.demand_hits         7528                       # Number of cache demand hits
system.ruby.l2_cntrl6.L2cache.demand_misses         2345                       # Number of cache demand misses
system.ruby.l2_cntrl6.L2cache.demand_accesses         9873                       # Number of cache demand accesses
system.ruby.l1_cntrl14.L1Dcache.demand_hits        19190                       # Number of cache demand hits
system.ruby.l1_cntrl14.L1Dcache.demand_misses          582                       # Number of cache demand misses
system.ruby.l1_cntrl14.L1Dcache.demand_accesses        19772                       # Number of cache demand accesses
system.ruby.l1_cntrl14.L1Icache.demand_hits        26911                       # Number of cache demand hits
system.ruby.l1_cntrl14.L1Icache.demand_misses          290                       # Number of cache demand misses
system.ruby.l1_cntrl14.L1Icache.demand_accesses        27201                       # Number of cache demand accesses
system.ruby.l1_cntrl14.sequencer.store_waiting_on_load          417                       # Number of times a store aliased with a pending load
system.ruby.l1_cntrl14.sequencer.store_waiting_on_store         4737                       # Number of times a store aliased with a pending store
system.ruby.l1_cntrl14.sequencer.load_waiting_on_store          346                       # Number of times a load aliased with a pending store
system.ruby.l1_cntrl14.sequencer.load_waiting_on_load         7174                       # Number of times a load aliased with a pending load
system.ruby.l1_cntrl14.fully_busy_cycles          249                       # cycles for which number of transistions == max transitions
system.ruby.l1_cntrl15.L1Dcache.demand_hits        18694                       # Number of cache demand hits
system.ruby.l1_cntrl15.L1Dcache.demand_misses          553                       # Number of cache demand misses
system.ruby.l1_cntrl15.L1Dcache.demand_accesses        19247                       # Number of cache demand accesses
system.ruby.l1_cntrl15.L1Icache.demand_hits        26529                       # Number of cache demand hits
system.ruby.l1_cntrl15.L1Icache.demand_misses          293                       # Number of cache demand misses
system.ruby.l1_cntrl15.L1Icache.demand_accesses        26822                       # Number of cache demand accesses
system.ruby.l1_cntrl15.sequencer.store_waiting_on_load          126                       # Number of times a store aliased with a pending load
system.ruby.l1_cntrl15.sequencer.store_waiting_on_store         4924                       # Number of times a store aliased with a pending store
system.ruby.l1_cntrl15.sequencer.load_waiting_on_store          404                       # Number of times a load aliased with a pending store
system.ruby.l1_cntrl15.sequencer.load_waiting_on_load         6605                       # Number of times a load aliased with a pending load
system.ruby.l1_cntrl15.fully_busy_cycles          260                       # cycles for which number of transistions == max transitions
system.ruby.l1_cntrl12.L1Dcache.demand_hits        18848                       # Number of cache demand hits
system.ruby.l1_cntrl12.L1Dcache.demand_misses          548                       # Number of cache demand misses
system.ruby.l1_cntrl12.L1Dcache.demand_accesses        19396                       # Number of cache demand accesses
system.ruby.l1_cntrl12.L1Icache.demand_hits        25758                       # Number of cache demand hits
system.ruby.l1_cntrl12.L1Icache.demand_misses          281                       # Number of cache demand misses
system.ruby.l1_cntrl12.L1Icache.demand_accesses        26039                       # Number of cache demand accesses
system.ruby.l1_cntrl12.sequencer.store_waiting_on_load          355                       # Number of times a store aliased with a pending load
system.ruby.l1_cntrl12.sequencer.store_waiting_on_store         4703                       # Number of times a store aliased with a pending store
system.ruby.l1_cntrl12.sequencer.load_waiting_on_store          197                       # Number of times a load aliased with a pending store
system.ruby.l1_cntrl12.sequencer.load_waiting_on_load         6861                       # Number of times a load aliased with a pending load
system.ruby.l1_cntrl12.fully_busy_cycles          244                       # cycles for which number of transistions == max transitions
system.ruby.l1_cntrl13.L1Dcache.demand_hits        18301                       # Number of cache demand hits
system.ruby.l1_cntrl13.L1Dcache.demand_misses          550                       # Number of cache demand misses
system.ruby.l1_cntrl13.L1Dcache.demand_accesses        18851                       # Number of cache demand accesses
system.ruby.l1_cntrl13.L1Icache.demand_hits        27155                       # Number of cache demand hits
system.ruby.l1_cntrl13.L1Icache.demand_misses          285                       # Number of cache demand misses
system.ruby.l1_cntrl13.L1Icache.demand_accesses        27440                       # Number of cache demand accesses
[...]
system.ruby.L2Cache_Controller.MM.L1_GETX |           0      0.00%      0.00% |           0      0.00%      0.00% |           0      0.00%      0.00% |           7    100.00%    100.00% |           0      0.00%    100.00% |           0      0.00%    100.00% |           0      0.00%    100.00% |           0      0.00%    100.00% |           0      0.00%    100.00% |           0      0.00%    100.00% |           0      0.00%    100.00% |           0      0.00%    100.00% |           0      0.00%    100.00% |           0      0.00%    100.00% |           0      0.00%    100.00% |           0      0.00%    100.00%
system.ruby.L2Cache_Controller.MM.L1_GETX::total            7                      
system.ruby.L2Cache_Controller.MM.Exclusive_Unblock |        3166      6.33%      6.33% |        3185      6.37%     12.70% |        3030      6.06%     18.76% |        3057      6.11%     24.88% |        3110      6.22%     31.10% |        3066      6.13%     37.23% |        3100      6.20%     43.43% |        3102      6.20%     49.64% |        3100      6.20%     55.84% |        3073      6.15%     61.99% |        3060      6.12%     68.11% |        3121      6.24%     74.35% |        3131      6.26%     80.61% |        3220      6.44%     87.05% |        3209      6.42%     93.47% |        3263      6.53%    100.00%
system.ruby.L2Cache_Controller.MM.Exclusive_Unblock::total        49993                      
system.ruby.L2Cache_Controller.OO.L1_GETS |           0      0.00%      0.00% |           0      0.00%      0.00% |           1      0.10%      0.10% |           0      0.00%      0.10% |           0      0.00%      0.10% |           0      0.00%      0.10% |           0      0.00%      0.10% |           0      0.00%      0.10% |          35      3.40%      3.50% |           2      0.19%      3.70% |           0      0.00%      3.70% |           0      0.00%      3.70% |           0      0.00%      3.70% |           0      0.00%      3.70% |           0      0.00%      3.70% |         990     96.30%    100.00%
system.ruby.L2Cache_Controller.OO.L1_GETS::total         1028                      
system.ruby.L2Cache_Controller.OO.Exclusive_Unblock |        2798      6.73%      6.73% |        2789      6.71%     13.45% |        2419      5.82%     19.27% |        2746      6.61%     25.88% |        2439      5.87%     31.75% |        2376      5.72%     37.47% |        3174      7.64%     45.11% |        2486      5.98%     51.09% |        2517      6.06%     57.15% |        2242      5.40%     62.54% |        2404      5.79%     68.33% |        2739      6.59%     74.92% |        2631      6.33%     81.26% |        2336      5.62%     86.88% |        2413      5.81%     92.69% |        3039      7.31%    100.00%
system.ruby.L2Cache_Controller.OO.Exclusive_Unblock::total        41548                      
system.ruby.L2Cache_Controller.OLSXS.L1_GETS |          49      0.90%      0.90% |         175      3.21%      4.10% |          96      1.76%      5.86% |         115      2.11%      7.97% |         572     10.48%     18.45% |         360      6.60%     25.05% |         114      2.09%     27.14% |         270      4.95%     32.09% |         466      8.54%     40.63% |         996     18.25%     58.88% |          50      0.92%     59.79% |         587     10.76%     70.55% |          37      0.68%     71.23% |          75      1.37%     72.60% |         101      1.85%     74.45% |        1394     25.55%    100.00%
system.ruby.L2Cache_Controller.OLSXS.L1_GETS::total         5457                      
system.ruby.L2Cache_Controller.OLSXS.L1_GETX |           0      0.00%      0.00% |           8    100.00%    100.00% |           0      0.00%    100.00% |           0      0.00%    100.00% |           0      0.00%    100.00% |           0      0.00%    100.00% |           0      0.00%    100.00% |           0      0.00%    100.00% |           0      0.00%    100.00% |           0      0.00%    100.00% |           0      0.00%    100.00% |           0      0.00%    100.00% |           0      0.00%    100.00% |           0      0.00%    100.00% |           0      0.00%    100.00% |           0      0.00%    100.00%
system.ruby.L2Cache_Controller.OLSXS.L1_GETX::total            8                      
system.ruby.L2Cache_Controller.OLSXS.L1_PUTS_only |           0      0.00%      0.00% |           0      0.00%      0.00% |           0      0.00%      0.00% |           0      0.00%      0.00% |           0      0.00%      0.00% |           0      0.00%      0.00% |           5     20.83%     20.83% |           0      0.00%     20.83% |           0      0.00%     20.83% |           0      0.00%     20.83% |           0      0.00%     20.83% |           0      0.00%     20.83% |           5     20.83%     41.67% |           0      0.00%     41.67% |           6     25.00%     66.67% |           8     33.33%    100.00%
system.ruby.L2Cache_Controller.OLSXS.L1_PUTS_only::total           24                      
system.ruby.L2Cache_Controller.OLSXS.L1_PUTS |          15      0.64%      0.64% |          49      2.08%      2.72% |           0      0.00%      2.72% |          20      0.85%      3.57% |         330     14.04%     17.61% |          71      3.02%     20.63% |           0      0.00%     20.63% |           0      0.00%     20.63% |           9      0.38%     21.01% |        1291     54.91%     75.93% |           8      0.34%     76.27% |          46      1.96%     78.22% |          18      0.77%     78.99% |          13      0.55%     79.54% |          23      0.98%     80.52% |         458     19.48%    100.00%
system.ruby.L2Cache_Controller.OLSXS.L1_PUTS::total         2351                      
system.ruby.L2Cache_Controller.OLSXS.Unblock |        1113      5.25%      5.25% |        2103      9.91%     15.16% |        1127      5.31%     20.47% |        1403      6.61%     27.08% |        1072      5.05%     32.14% |        1120      5.28%     37.42% |        1250      5.89%     43.31% |        1266      5.97%     49.27% |        1279      6.03%     55.30% |        1560      7.35%     62.66% |        1098      5.18%     67.83% |        1285      6.06%     73.89% |        1404      6.62%     80.51% |         945      4.45%     84.96% |        1323      6.24%     91.20% |        1868      8.80%    100.00%
system.ruby.L2Cache_Controller.OLSXS.Unblock::total        21216                      
system.ruby.L2Cache_Controller.MI.Writeback_Ack |        1320      6.70%      6.70% |        1251      6.35%     13.05% |        1238      6.28%     19.33% |        1248      6.33%     25.66% |        1221      6.20%     31.86% |        1198      6.08%     37.93% |        1209      6.13%     44.07% |        1234      6.26%     50.33% |        1196      6.07%     56.40% |        1216      6.17%     62.57% |        1248      6.33%     68.90% |        1232      6.25%     75.15% |        1205      6.11%     81.27% |        1263      6.41%     87.68% |        1202      6.10%     93.77% |        1227      6.23%    100.00%
system.ruby.L2Cache_Controller.MI.Writeback_Ack::total        19708                      
system.ruby.Directory_Controller.GETX    |        1043      6.25%      6.25% |        1050      6.29%     12.54% |        1046      6.26%     18.80% |        1034      6.19%     24.99% |        1034      6.19%     31.19% |        1035      6.20%     37.38% |        1041      6.23%     43.62% |        1041      6.23%     49.85% |        1047      6.27%     56.12% |        1046      6.26%     62.39% |        1048      6.28%     68.67% |        1047      6.27%     74.94% |        1047      6.27%     81.21% |        1046      6.26%     87.47% |        1046      6.26%     93.74% |        1046      6.26%    100.00%
system.ruby.Directory_Controller.GETX::total        16697                      
system.ruby.Directory_Controller.GETS    |          47      7.11%      7.11% |          46      6.96%     14.07% |          46      6.96%     21.03% |          43      6.51%     27.53% |          40      6.05%     33.59% |          38      5.75%     39.33% |          37      5.60%     44.93% |          40      6.05%     50.98% |          36      5.45%     56.43% |          42      6.35%     62.78% |          41      6.20%     68.99% |          40      6.05%     75.04% |          43      6.51%     81.54% |          42      6.35%     87.90% |          42      6.35%     94.25% |          38      5.75%    100.00%
system.ruby.Directory_Controller.GETS::total          661                      
system.ruby.Directory_Controller.PUTX    |        1320      6.70%      6.70% |        1251      6.35%     13.05% |        1238      6.28%     19.33% |        1248      6.33%     25.66% |        1221      6.20%     31.86% |        1198      6.08%     37.93% |        1209      6.13%     44.07% |        1234      6.26%     50.33% |        1196      6.07%     56.40% |        1216      6.17%     62.57% |        1248      6.33%     68.90% |        1232      6.25%     75.15% |        1205      6.11%     81.27% |        1263      6.41%     87.68% |        1202      6.10%     93.77% |        1227      6.23%    100.00%
system.ruby.Directory_Controller.PUTX::total        19708                      
system.ruby.Directory_Controller.Exclusive_Unblock |        1090      6.28%      6.28% |        1096      6.31%     12.59% |        1092      6.29%     18.88% |        1077      6.20%     25.09% |        1074      6.19%     31.28% |        1073      6.18%     37.46% |        1078      6.21%     43.67% |        1081      6.23%     49.90% |        1083      6.24%     56.14% |        1088      6.27%     62.40% |        1089      6.27%     68.68% |        1087      6.26%     74.94% |        1090      6.28%     81.22% |        1088      6.27%     87.49% |        1088      6.27%     93.76% |        1084      6.24%    100.00%
system.ruby.Directory_Controller.Exclusive_Unblock::total        17358                      
system.ruby.Directory_Controller.Clean_Writeback |         891      6.34%      6.34% |         892      6.35%     12.69% |         891      6.34%     19.03% |         893      6.36%     25.39% |         879      6.26%     31.65% |         855      6.09%     37.73% |         849      6.04%     43.78% |         878      6.25%     50.02% |         857      6.10%     56.12% |         876      6.24%     62.36% |         907      6.46%     68.82% |         892      6.35%     75.17% |         863      6.14%     81.31% |         911      6.48%     87.79% |         848      6.04%     93.83% |         867      6.17%    100.00%
system.ruby.Directory_Controller.Clean_Writeback::total        14049                      
system.ruby.Directory_Controller.Dirty_Writeback |         429      7.58%      7.58% |         359      6.34%     13.92% |         347      6.13%     20.06% |         355      6.27%     26.33% |         342      6.04%     32.37% |         343      6.06%     38.43% |         360      6.36%     44.80% |         356      6.29%     51.09% |         339      5.99%     57.08% |         340      6.01%     63.09% |         341      6.03%     69.11% |         340      6.01%     75.12% |         342      6.04%     81.16% |         352      6.22%     87.38% |         354      6.26%     93.64% |         360      6.36%    100.00%
system.ruby.Directory_Controller.Dirty_Writeback::total         5659                      
system.ruby.Directory_Controller.Memory_Data |        1090      6.28%      6.28% |        1096      6.31%     12.59% |        1092      6.29%     18.88% |        1077      6.20%     25.09% |        1074      6.19%     31.28% |        1073      6.18%     37.46% |        1078      6.21%     43.67% |        1081      6.23%     49.90% |        1083      6.24%     56.14% |        1088      6.27%     62.40% |        1089      6.27%     68.68% |        1087      6.26%     74.94% |        1090      6.28%     81.22% |        1088      6.27%     87.49% |        1088      6.27%     93.76% |        1084      6.24%    100.00%
system.ruby.Directory_Controller.Memory_Data::total        17358                      
system.ruby.Directory_Controller.Memory_Ack |         429      7.58%      7.58% |         359      6.34%     13.92% |         347      6.13%     20.06% |         355      6.27%     26.33% |         342      6.04%     32.37% |         343      6.06%     38.43% |         360      6.36%     44.80% |         356      6.29%     51.09% |         339      5.99%     57.08% |         340      6.01%     63.09% |         341      6.03%     69.11% |         340      6.01%     75.12% |         342      6.04%     81.16% |         352      6.22%     87.38% |         354      6.26%     93.64% |         360      6.36%    100.00%
system.ruby.Directory_Controller.Memory_Ack::total         5659                      
system.ruby.Directory_Controller.I.GETX  |        1043      6.25%      6.25% |        1050      6.29%     12.54% |        1046      6.26%     18.80% |        1034      6.19%     24.99% |        1034      6.19%     31.19% |        1035      6.20%     37.38% |        1041      6.23%     43.62% |        1041      6.23%     49.85% |        1047      6.27%     56.12% |        1046      6.26%     62.39% |        1048      6.28%     68.67% |        1047      6.27%     74.94% |        1047      6.27%     81.21% |        1046      6.26%     87.47% |        1046      6.26%     93.74% |        1046      6.26%    100.00%
system.ruby.Directory_Controller.I.GETX::total        16697                      
system.ruby.Directory_Controller.I.GETS  |          47      7.11%      7.11% |          46      6.96%     14.07% |          46      6.96%     21.03% |          43      6.51%     27.53% |          40      6.05%     33.59% |          38      5.75%     39.33% |          37      5.60%     44.93% |          40      6.05%     50.98% |          36      5.45%     56.43% |          42      6.35%     62.78% |          41      6.20%     68.99% |          40      6.05%     75.04% |          43      6.51%     81.54% |          42      6.35%     87.90% |          42      6.35%     94.25% |          38      5.75%    100.00%
system.ruby.Directory_Controller.I.GETS::total          661                      
system.ruby.Directory_Controller.I.Memory_Ack |         429      7.58%      7.58% |         359      6.34%     13.92% |         347      6.13%     20.06% |         355      6.27%     26.33% |         342      6.04%     32.37% |         343      6.06%     38.43% |         360      6.36%     44.80% |         356      6.29%     51.09% |         339      5.99%     57.08% |         340      6.01%     63.09% |         341      6.03%     69.11% |         340      6.01%     75.12% |         342      6.04%     81.16% |         352      6.22%     87.38% |         354      6.26%     93.64% |         360      6.36%    100.00%
system.ruby.Directory_Controller.I.Memory_Ack::total         5659                      
system.ruby.Directory_Controller.M.PUTX  |        1320      6.70%      6.70% |        1251      6.35%     13.05% |        1238      6.28%     19.33% |        1248      6.33%     25.66% |        1221      6.20%     31.86% |        1198      6.08%     37.93% |        1209      6.13%     44.07% |        1234      6.26%     50.33% |        1196      6.07%     56.40% |        1216      6.17%     62.57% |        1248      6.33%     68.90% |        1232      6.25%     75.15% |        1205      6.11%     81.27% |        1263      6.41%     87.68% |        1202      6.10%     93.77% |        1227      6.23%    100.00%
system.ruby.Directory_Controller.M.PUTX::total        19708                      
system.ruby.Directory_Controller.IS.Exclusive_Unblock |          47      7.11%      7.11% |          46      6.96%     14.07% |          46      6.96%     21.03% |          43      6.51%     27.53% |          40      6.05%     33.59% |          38      5.75%     39.33% |          37      5.60%     44.93% |          40      6.05%     50.98% |          36      5.45%     56.43% |          42      6.35%     62.78% |          41      6.20%     68.99% |          40      6.05%     75.04% |          43      6.51%     81.54% |          42      6.35%     87.90% |          42      6.35%     94.25% |          38      5.75%    100.00%
system.ruby.Directory_Controller.IS.Exclusive_Unblock::total          661                      
system.ruby.Directory_Controller.IS.Memory_Data |          47      7.11%      7.11% |          46      6.96%     14.07% |          46      6.96%     21.03% |          43      6.51%     27.53% |          40      6.05%     33.59% |          38      5.75%     39.33% |          37      5.60%     44.93% |          40      6.05%     50.98% |          36      5.45%     56.43% |          42      6.35%     62.78% |          41      6.20%     68.99% |          40      6.05%     75.04% |          43      6.51%     81.54% |          42      6.35%     87.90% |          42      6.35%     94.25% |          38      5.75%    100.00%
system.ruby.Directory_Controller.IS.Memory_Data::total          661                      
system.ruby.Directory_Controller.MM.Exclusive_Unblock |        1043      6.25%      6.25% |        1050      6.29%     12.54% |        1046      6.26%     18.80% |        1034      6.19%     24.99% |        1034      6.19%     31.19% |        1035      6.20%     37.38% |        1041      6.23%     43.62% |        1041      6.23%     49.85% |        1047      6.27%     56.12% |        1046      6.26%     62.39% |        1048      6.28%     68.67% |        1047      6.27%     74.94% |        1047      6.27%     81.21% |        1046      6.26%     87.47% |        1046      6.26%     93.74% |        1046      6.26%    100.00%
system.ruby.Directory_Controller.MM.Exclusive_Unblock::total        16697                      
system.ruby.Directory_Controller.MM.Memory_Data |        1043      6.25%      6.25% |        1050      6.29%     12.54% |        1046      6.26%     18.80% |        1034      6.19%     24.99% |        1034      6.19%     31.19% |        1035      6.20%     37.38% |        1041      6.23%     43.62% |        1041      6.23%     49.85% |        1047      6.27%     56.12% |        1046      6.26%     62.39% |        1048      6.28%     68.67% |        1047      6.27%     74.94% |        1047      6.27%     81.21% |        1046      6.26%     87.47% |        1046      6.26%     93.74% |        1046      6.26%    100.00%
system.ruby.Directory_Controller.MM.Memory_Data::total        16697                      
system.ruby.Directory_Controller.MI.Clean_Writeback |         891      6.34%      6.34% |         892      6.35%     12.69% |         891      6.34%     19.03% |         893      6.36%     25.39% |         879      6.26%     31.65% |         855      6.09%     37.73% |         849      6.04%     43.78% |         878      6.25%     50.02% |         857      6.10%     56.12% |         876      6.24%     62.36% |         907      6.46%     68.82% |         892      6.35%     75.17% |         863      6.14%     81.31% |         911      6.48%     87.79% |         848      6.04%     93.83% |         867      6.17%    100.00%
system.ruby.Directory_Controller.MI.Clean_Writeback::total        14049                      
system.ruby.Directory_Controller.MI.Dirty_Writeback |         429      7.58%      7.58% |         359      6.34%     13.92% |         347      6.13%     20.06% |         355      6.27%     26.33% |         342      6.04%     32.37% |         343      6.06%     38.43% |         360      6.36%     44.80% |         356      6.29%     51.09% |         339      5.99%     57.08% |         340      6.01%     63.09% |         341      6.03%     69.11% |         340      6.01%     75.12% |         342      6.04%     81.16% |         352      6.22%     87.38% |         354      6.26%     93.64% |         360      6.36%    100.00%
system.ruby.Directory_Controller.MI.Dirty_Writeback::total         5659                      

---------- End Simulation Statistics   ----------
